
#######################################################################
#
#                 Cambridge Crystallographic Data Centre
#                                CCDC 
#
#######################################################################
#
# If this CIF has been generated from an entry in the Cambridge 
# Structural Database, then it will include bibliographic, chemical, 
# crystal, experimental, refinement or atomic coordinate data resulting 
# from the CCDC's data processing and validation procedures.
#
#######################################################################

data_UREAXX
_symmetry_cell_setting           tetragonal
_symmetry_space_group_name_H-M   'P -4 21 m'
_symmetry_Int_Tables_number      113
_space_group_name_Hall           'P -4 2ab'
loop_
_symmetry_equiv_pos_site_id
_symmetry_equiv_pos_as_xyz
1 x,y,z
2 -y,x,-z
3 -x,-y,z
4 y,-x,-z
5 1/2-x,1/2+y,-z
6 1/2+y,1/2+x,z
7 1/2+x,1/2-y,-z
8 1/2-y,1/2-x,z
_cell_length_a                   5.662
_cell_length_b                   5.662
_cell_length_c                   4.716
_cell_angle_alpha                90
_cell_angle_beta                 90
_cell_angle_gamma                90
_cell_volume                     151.187
loop_
_atom_site_label
_atom_site_type_symbol
_atom_site_fract_x
_atom_site_fract_y
_atom_site_fract_z
C1 C 0.00000 0.50000 0.33000
H1 H 0.24300 0.74300 0.28100
H2 H 0.14200 0.64200 0.02800
N1 N 0.14330 0.64330 0.18470
O1 O 0.00000 0.50000 0.59800

#END
